   77
jmolscript: load "" {1 1 1} spacegroup "x,y,z" unitcell [{     11.221552     0.000000     0.000000 }, {      5.610776     9.718149     0.000000 }, {      0.000000     0.000000    31.871011 }]
C      8.030648     3.959718    23.672321    -0.379469
C      8.240681     4.781329    22.388843     0.155779
C      9.548334     4.366841    21.712445    -0.281666
C      8.168218     6.279081    22.672878    -0.374884
H      7.990480     2.882490    23.454801     0.119129
H      8.845501     4.133595    24.393052     0.119095
H      7.084474     4.246452    24.156218     0.122607
H      7.394083     4.520144    21.708206     0.046969
H      9.781109     3.307319    21.900611     0.111480
H     10.397537     4.986334    22.044031     0.120221
H      8.958967     6.587379    23.376781     0.122477
H      8.308942     6.872383    21.743679     0.095872
H      7.194036     6.565270    23.096029     0.123162
Pt     9.624837     4.475227    12.500002    -0.033936
Pt    12.430225     4.475227    12.500002    -0.032300
Pt     4.014061     4.475227    12.500002    -0.032456
Pt     6.819449     4.475227    12.500002    -0.032884
Pt    11.027531     6.904764    12.500002    -0.032997
Pt    13.832919     6.904764    12.500002    -0.033323
Pt     5.416755     6.904764    12.500002    -0.032837
Pt     8.222143     6.904764    12.500002    -0.033405
Pt    12.430225     9.334302    12.500002    -0.032722
Pt    15.235613     9.334302    12.500002    -0.032975
Pt     6.819449     9.334302    12.500002    -0.032303
Pt     9.624837     9.334302    12.500002    -0.033421
Pt     8.222143     2.045690    12.500002    -0.032911
Pt    11.027531     2.045690    12.500002    -0.032714
Pt     2.611367     2.045690    12.500002    -0.033634
Pt     5.416755     2.045690    12.500002    -0.034163
Pt    11.027526     5.285070    14.790603     0.038178
Pt    13.832914     5.285070    14.790603     0.032185
Pt     5.416750     5.285070    14.790603     0.033039
Pt     8.222138     5.285070    14.790603     0.039599
Pt    12.430220     7.714607    14.790603     0.031994
Pt    15.235608     7.714607    14.790603     0.032562
Pt     6.819444     7.714607    14.790603     0.033086
Pt     9.624832     7.714607    14.790603     0.031032
Pt     8.222138     0.425995    14.790603     0.032413
Pt    11.027526     0.425995    14.790603     0.032479
Pt     2.611362     0.425995    14.790603     0.034880
Pt     5.416750     0.425995    14.790603     0.034065
Pt     9.624832     2.855532    14.790603     0.037998
Pt    12.430220     2.855532    14.790603     0.030047
Pt     4.014056     2.855532    14.790603     0.035302
Pt     6.819444     2.855532    14.790603     0.031139
Pt     9.622610     6.071695    17.098160    -0.008992
Pt    12.426214     6.093911    17.054401     0.032632
Pt     4.010218     6.092006    17.053764     0.033779
Pt     6.818148     6.095145    17.054369     0.019004
Pt    11.022426     8.518949    17.051788     0.033656
Pt    13.829418     8.524547    17.053987     0.032988
Pt     5.416783     8.527355    17.052329     0.033355
Pt     8.224203     8.520339    17.047963     0.028113
Pt     6.818928     1.241484    17.050035     0.033045
Pt     9.622655     1.238393    17.051756     0.030635
Pt     1.203450     1.245177    17.047485     0.032730
Pt     4.010661     1.237917    17.052553     0.033146
Pt     8.238667     3.679281    17.094941    -0.007055
Pt    11.001896     3.679903    17.096662    -0.000308
Pt     2.599646     3.666628    17.051341     0.033399
Pt     5.419516     3.665725    17.051214     0.029365
Pt     9.610861     4.475217    19.618041     0.099122
Pt    12.423470     4.471865    19.354468    -0.039808
Pt     4.005140     4.473711    19.350931    -0.052174
Pt     6.807790     4.466558    19.353034    -0.021197
Pt    11.026134     6.908914    19.353576    -0.043796
Pt    13.827140     6.901674    19.353448    -0.044255
Pt     5.407930     6.907087    19.344907    -0.044950
Pt     8.222368     6.923754    19.345672    -0.006495
Pt    12.429019     9.331804    19.351791    -0.046277
Pt    15.231517     9.333563    19.350771    -0.049666
Pt     6.813822     9.341697    19.345608    -0.048180
Pt     9.626560     9.342261    19.350994    -0.044309
Pt     8.212605     2.035097    19.346341    -0.031807
Pt    11.027083     2.044426    19.348062    -0.035832
Pt     2.607524     2.046691    19.353353    -0.042317
Pt     5.410814     2.041190    19.354436    -0.049338
 
 Chargemol version 3.5 September 26, 2017.
See ddec.sourceforge.net for latest version.
 
Computational parameters:
Number of radial integration shells =    100
Cutoff radius (pm) =    500
Error in the integrated total number of electrons before renormalization (e) =    1.1089E-05
Charge convergence tolerance =    1.0000E-05
Minimum radius for electron cloud penetration fitting (pm) =    200
Minimum decay exponent for electron density of buried atom tails =   1.7500
Maximum decay exponent for electron density of buried atom tails =  2.5000
Number of iterations to convergence =      7
 
The following XYZ coordinates are in angstroms. The atomic dipoles and quadrupoles are in atomic units.
atom number, atomic symbol, x, y, z, net_charge, dipole_x, dipole_y, dipole_z, dipole_mag, Qxy, Qxz, Qyz,Q(x^2-y^2), Q(3z^2 - R^2), three eigenvalues of traceless quadrupole moment tensor
    1 C      8.030648     3.959718    23.672321    -0.379469     0.016338     0.040998    -0.063852     0.077621     0.007798    -0.010530    -0.012318    -0.001232    -0.011726    -0.014677    -0.005842     0.020518
    2 C      8.240681     4.781329    22.388843     0.155779     0.043397     0.017566     0.048419     0.067351    -0.000967    -0.007130    -0.006861    -0.010089    -0.024439    -0.014294     0.002584     0.011710
    3 C      9.548334     4.366841    21.712445    -0.281666    -0.045586     0.023174    -0.017967     0.054203    -0.000291     0.003941    -0.007951    -0.029992     0.129950    -0.036848    -0.007894     0.044742
    4 C      8.168218     6.279081    22.672878    -0.374884     0.008816    -0.061077    -0.016647     0.063915    -0.006395    -0.008449    -0.007537    -0.034056    -0.056233    -0.025127    -0.003217     0.028344
    5 H      7.990480     2.882490    23.454801     0.119129    -0.000855    -0.024832    -0.013152     0.028113     0.000917    -0.001126     0.001350    -0.017294     0.008404    -0.010207     0.002563     0.007644
    6 H      8.845501     4.133595    24.393052     0.119095     0.022410     0.007709     0.009621     0.025577     0.004933     0.003868    -0.003986     0.011759     0.006383    -0.010776     0.002928     0.007848
    7 H      7.084474     4.246452    24.156218     0.122607    -0.024409     0.011184     0.004822     0.027279    -0.005614    -0.003511    -0.003535     0.010911    -0.003710    -0.009770     0.000929     0.008841
    8 H      7.394083     4.520144    21.708206     0.046969    -0.036964    -0.011537    -0.022830     0.044951     0.000671     0.002308     0.000175     0.007283    -0.008692    -0.003516    -0.002253     0.005770
    9 H      9.781109     3.307319    21.900611     0.111480     0.006654    -0.040478     0.010362     0.042310    -0.005790     0.001527    -0.002736    -0.003292    -0.023299    -0.008325    -0.002108     0.010433
   10 H     10.397537     4.986334    22.044031     0.120221     0.029198     0.025979     0.014036     0.041527     0.003009     0.003176     0.002370     0.006592    -0.022630    -0.008555    -0.000561     0.009116
   11 H      8.958967     6.587379    23.376781     0.122477     0.021268     0.003390     0.014118     0.025752     0.000727     0.007533     0.003436    -0.004329    -0.013715    -0.010491     0.002621     0.007871
   12 H      8.308942     6.872383    21.743679     0.095872     0.004688     0.011402    -0.022356     0.025530    -0.001139    -0.001024    -0.000584    -0.017319     0.006618    -0.009930     0.002249     0.007680
   13 H      7.194036     6.565270    23.096029     0.123162    -0.027293     0.003806     0.006902     0.028409    -0.001123    -0.005447     0.003625     0.002768    -0.027995    -0.011722     0.002990     0.008732
   14 Pt     9.624837     4.475227    12.500002    -0.033936     0.000112     0.000075    -0.112742     0.112742    -0.000301     0.000663    -0.000154    -0.000826     0.251831    -0.042486    -0.041462     0.083947
   15 Pt    12.430225     4.475227    12.500002    -0.032300     0.000711    -0.000017    -0.112799     0.112802    -0.001703     0.001373    -0.000679    -0.002154     0.254637    -0.044461    -0.040437     0.084898
   16 Pt     4.014061     4.475227    12.500002    -0.032456     0.000521    -0.000505    -0.112485     0.112487    -0.000286    -0.000116    -0.000059    -0.001023     0.255613    -0.043188    -0.042016     0.085204
   17 Pt     6.819449     4.475227    12.500002    -0.032884     0.000089    -0.000033    -0.111955     0.111955     0.001256    -0.000799    -0.001129    -0.001788     0.248732    -0.042997    -0.039929     0.082926
   18 Pt    11.027531     6.904764    12.500002    -0.032997     0.000482     0.000510    -0.111712     0.111714    -0.001393    -0.000076     0.001039    -0.002859     0.249335    -0.043553    -0.039568     0.083120
   19 Pt    13.832919     6.904764    12.500002    -0.033323     0.000534     0.000324    -0.111891     0.111892    -0.000032    -0.000167    -0.000261    -0.000815     0.256418    -0.043146    -0.042328     0.085473
   20 Pt     5.416755     6.904764    12.500002    -0.032837     0.000268     0.000067    -0.112583     0.112584    -0.000572     0.000094    -0.000283    -0.000555     0.259957    -0.043962    -0.042691     0.086653
   21 Pt     8.222143     6.904764    12.500002    -0.033405     0.000237     0.000035    -0.111751     0.111751     0.000931     0.000639     0.002022    -0.003029     0.247768    -0.043072    -0.039554     0.082626
   22 Pt    12.430225     9.334302    12.500002    -0.032722    -0.000070     0.000040    -0.111386     0.111386    -0.000163     0.000095     0.000503    -0.000645     0.250865    -0.042173    -0.041451     0.083624
   23 Pt    15.235613     9.334302    12.500002    -0.032975     0.000224    -0.000504    -0.112235     0.112237    -0.000167    -0.000023     0.000628    -0.001065     0.258445    -0.043633    -0.042519     0.086152
   24 Pt     6.819449     9.334302    12.500002    -0.032303     0.000841     0.000118    -0.112780     0.112783     0.000034     0.000278     0.000384    -0.000277     0.257587    -0.043074    -0.042790     0.085864
   25 Pt     9.624837     9.334302    12.500002    -0.033421     0.000494    -0.003132    -0.109749     0.109795    -0.000266     0.000663     0.005295     0.004737     0.248103    -0.043957    -0.038968     0.082926
   26 Pt     8.222143     2.045690    12.500002    -0.032911    -0.000036    -0.000325    -0.111665     0.111666     0.000089    -0.001068    -0.000402     0.002694     0.248656    -0.042794    -0.040102     0.082896
   27 Pt    11.027531     2.045690    12.500002    -0.032714     0.000277    -0.000158    -0.112257     0.112258    -0.000458     0.001830    -0.000792     0.002632     0.252335    -0.043451    -0.040692     0.084144
   28 Pt     2.611367     2.045690    12.500002    -0.033634    -0.002771     0.001491    -0.110056     0.110101     0.001979     0.005726    -0.002428    -0.003128     0.247095    -0.044010    -0.038661     0.082671
   29 Pt     5.416755     2.045690    12.500002    -0.034163     0.002856     0.001430    -0.108843     0.108890    -0.002418    -0.003680    -0.002995    -0.003061     0.243320    -0.043590    -0.037698     0.081287
   30 Pt    11.027526     5.285070    14.790603     0.038178    -0.001513    -0.000681    -0.042019     0.042052    -0.001048    -0.004779    -0.002380    -0.001431     0.041839    -0.009459    -0.005705     0.015164
   31 Pt    13.832914     5.285070    14.790603     0.032185    -0.000689    -0.000020    -0.048470     0.048475     0.000140    -0.001156    -0.000390    -0.000561     0.027936    -0.005047    -0.004369     0.009417
   32 Pt     5.416750     5.285070    14.790603     0.033039    -0.001056     0.000014    -0.046893     0.046904     0.000840     0.000734    -0.000360    -0.001043     0.032541    -0.006450    -0.004435     0.010886
   33 Pt     8.222138     5.285070    14.790603     0.039599    -0.000449    -0.000391    -0.040022     0.040026     0.001279     0.002608    -0.002191    -0.000280     0.044290    -0.009153    -0.006095     0.015249
   34 Pt    12.430220     7.714607    14.790603     0.031994    -0.000200    -0.000358    -0.048233     0.048235    -0.000344    -0.001170    -0.000362     0.000561     0.028976    -0.005322    -0.004440     0.009762
   35 Pt    15.235608     7.714607    14.790603     0.032562    -0.000974    -0.000516    -0.048228     0.048241     0.000369    -0.000393    -0.000144     0.000410     0.033184    -0.005953    -0.005119     0.011072
   36 Pt     6.819444     7.714607    14.790603     0.033086    -0.001287    -0.000539    -0.046949     0.046970     0.001162     0.000098    -0.000891    -0.000049     0.032109    -0.006542    -0.004211     0.010752
   37 Pt     9.624832     7.714607    14.790603     0.031032    -0.001054    -0.006532    -0.040046     0.040589     0.000074    -0.000994    -0.001127     0.005038     0.037506    -0.008830    -0.003793     0.012622
   38 Pt     8.222138     0.425995    14.790603     0.032413    -0.000792    -0.001047    -0.048175     0.048193    -0.000120    -0.000553     0.000571     0.001598     0.029033    -0.005665    -0.004056     0.009721
   39 Pt    11.027526     0.425995    14.790603     0.032479    -0.001028    -0.000793    -0.048535     0.048552     0.000418    -0.000728     0.000238     0.001585     0.028762    -0.005700    -0.003929     0.009629
   40 Pt     2.611362     0.425995    14.790603     0.034880    -0.001277    -0.000130    -0.049010     0.049026    -0.000629    -0.000600    -0.000443    -0.000613     0.027870    -0.005383    -0.003945     0.009328
   41 Pt     5.416750     0.425995    14.790603     0.034065    -0.000739    -0.000495    -0.049049     0.049057     0.000953    -0.000802     0.000155    -0.000199     0.026853    -0.005468    -0.003531     0.008999
   42 Pt     9.624832     2.855532    14.790603     0.037998    -0.001180     0.000232    -0.041986     0.042004     0.000202    -0.001140     0.004456     0.003375     0.041796    -0.009541    -0.005297     0.014838
   43 Pt    12.430220     2.855532    14.790603     0.030047    -0.006200     0.002737    -0.041340     0.041892     0.002484    -0.001089     0.000091    -0.002227     0.034408    -0.008503    -0.003031     0.011534
   44 Pt     4.014056     2.855532    14.790603     0.035302    -0.001158     0.000001    -0.048639     0.048653     0.000686     0.000226     0.000091     0.002390     0.029028    -0.006216    -0.003465     0.009681
   45 Pt     6.819444     2.855532    14.790603     0.031139     0.003972     0.002662    -0.040606     0.040887    -0.001293     0.000423     0.001077    -0.001002     0.035955    -0.007427    -0.004630     0.012057
   46 Pt     9.622610     6.071695    17.098160    -0.008992     0.001440     0.024283     0.017590     0.030019     0.000734     0.004555     0.024112     0.001131    -0.023807    -0.027343     0.004211     0.023132
   47 Pt    12.426214     6.093911    17.054401     0.032632    -0.001554     0.000391     0.050031     0.050057    -0.001360     0.004392     0.003268    -0.000676     0.027104    -0.007708    -0.003117     0.010825
   48 Pt     4.010218     6.092006    17.053764     0.033779     0.000744     0.000209     0.052365     0.052371     0.001006    -0.000204     0.000586    -0.000432     0.029283    -0.005927    -0.003859     0.009787
   49 Pt     6.818148     6.095145    17.054369     0.019004    -0.001911     0.000349     0.040305     0.040352    -0.000203    -0.008148     0.003540    -0.000047     0.005811    -0.008443    -0.001100     0.009543
   50 Pt    11.022426     8.518949    17.051788     0.033656     0.000231     0.000228     0.053321     0.053322     0.002954     0.002338     0.001159    -0.002800     0.032338    -0.008756    -0.002487     0.011244
   51 Pt    13.829418     8.524547    17.053987     0.032988     0.000856    -0.000050     0.052844     0.052850    -0.000575     0.000380     0.000487     0.001791     0.030618    -0.006187    -0.004042     0.010230
   52 Pt     5.416783     8.527355    17.052329     0.033355    -0.000744    -0.001268     0.052354     0.052375     0.000586    -0.000984    -0.000256     0.000169     0.031313    -0.005824    -0.004681     0.010505
   53 Pt     8.224203     8.520339    17.047963     0.028113    -0.001136     0.003301     0.048141     0.048267    -0.002923    -0.001382     0.004805    -0.002813     0.022082    -0.007099    -0.002644     0.009743
   54 Pt     6.818928     1.241484    17.050035     0.033045    -0.000248    -0.001622     0.053014     0.053039     0.002873    -0.000429    -0.003077    -0.003132     0.028943    -0.008183    -0.002229     0.010412
   55 Pt     9.622655     1.238393    17.051756     0.030635    -0.000428    -0.000501     0.048527     0.048531    -0.000778     0.000330    -0.006121     0.001022     0.024478    -0.007153    -0.003494     0.010647
   56 Pt     1.203450     1.245177    17.047485     0.032730    -0.000683    -0.003141     0.053761     0.053857    -0.002777    -0.000217    -0.003077    -0.005429     0.030252    -0.009033    -0.001782     0.010814
   57 Pt     4.010661     1.237917    17.052553     0.033146     0.000427    -0.000335     0.054813     0.054816     0.000574     0.000373    -0.000078    -0.000936     0.031723    -0.006036    -0.004547     0.010583
   58 Pt     8.238667     3.679281    17.094941    -0.007055    -0.019446    -0.012598     0.018952     0.029934     0.000072    -0.019397    -0.013896    -0.003018    -0.022642    -0.026598     0.004147     0.022451
   59 Pt    11.001896     3.679903    17.096662    -0.000308     0.021929    -0.012204     0.022820     0.033920     0.000210     0.023056    -0.012006    -0.001291    -0.016859    -0.027970     0.003349     0.024620
   60 Pt     2.599646     3.666628    17.051341     0.033399     0.001953    -0.000077     0.054104     0.054139     0.000687     0.002336     0.001971     0.007568     0.032274    -0.009384    -0.002008     0.011392
   61 Pt     5.419516     3.665725    17.051214     0.029365    -0.002369     0.000062     0.051229     0.051284     0.000319    -0.004029    -0.000459     0.005363     0.022994    -0.006537    -0.002710     0.009247
   62 Pt     9.610861     4.475217    19.618041     0.099122     0.008157    -0.002491    -0.065099     0.065655    -0.000849    -0.019769    -0.006575     0.010218     0.303604    -0.056320    -0.047756     0.104076
   63 Pt    12.423470     4.471865    19.354468    -0.039808     0.014669     0.002793     0.098981     0.100101     0.003421    -0.013869    -0.002421    -0.007943     0.269656    -0.051265    -0.040050     0.091315
   64 Pt     4.005140     4.473711    19.350931    -0.052174    -0.004458    -0.000634     0.096837     0.096942     0.000291    -0.000068    -0.001377    -0.006449     0.191221    -0.035108    -0.028653     0.063761
   65 Pt     6.807790     4.466558    19.353034    -0.021197    -0.007488     0.004937     0.071024     0.071588    -0.003281     0.018075     0.012634    -0.009275     0.162719    -0.037761    -0.021809     0.059570
   66 Pt    11.026134     6.908914    19.353576    -0.043796     0.009840     0.010575     0.097705     0.098767    -0.003399    -0.007874    -0.006994    -0.001175     0.279703    -0.050836    -0.043168     0.094004
   67 Pt    13.827140     6.901674    19.353448    -0.044255     0.004030     0.003306     0.095791     0.095933    -0.000069     0.003722     0.003114     0.001260     0.175804    -0.030072    -0.028796     0.058869
   68 Pt     5.407930     6.907087    19.344907    -0.044950    -0.005584     0.004446     0.102630     0.102878     0.001965     0.009057     0.000488    -0.001287     0.251010    -0.044313    -0.040007     0.084320
   69 Pt     8.222368     6.923754    19.345672    -0.006495    -0.010257     0.000707     0.074409     0.075116     0.004166    -0.006619    -0.024737     0.011753     0.148953    -0.037971    -0.019423     0.057394
   70 Pt    12.429019     9.331804    19.351791    -0.046277    -0.002517    -0.000983     0.095845     0.095884    -0.000456    -0.001971    -0.001177     0.000306     0.166101    -0.028218    -0.027212     0.055430
   71 Pt    15.231517     9.333563    19.350771    -0.049666     0.000288    -0.006990     0.094490     0.094749    -0.000464     0.000802    -0.006497     0.003641     0.179758    -0.032278    -0.028107     0.060385
   72 Pt     6.813822     9.341697    19.345608    -0.048180    -0.000276     0.001884     0.101472     0.101489     0.003525     0.006332    -0.007578     0.005844     0.225350    -0.042914    -0.033032     0.075947
   73 Pt     9.626560     9.342261    19.350994    -0.044309     0.000419     0.006666     0.101718     0.101937    -0.004342    -0.003744    -0.000016     0.002991     0.238814    -0.044433    -0.035290     0.079724
   74 Pt     8.212605     2.035097    19.346341    -0.031807    -0.001440    -0.005601     0.098901     0.099070    -0.001043     0.010076     0.026004     0.001073     0.278632    -0.052895    -0.045318     0.098213
   75 Pt    11.027083     2.044426    19.348062    -0.035832     0.004886    -0.008772     0.095463     0.095990     0.004132    -0.006393     0.015100    -0.001680     0.244157    -0.046630    -0.036881     0.083511
   76 Pt     2.607524     2.046691    19.353353    -0.042317     0.004192    -0.000600     0.098016     0.098107     0.000133     0.004807    -0.001899    -0.001312     0.188522    -0.032353    -0.030769     0.063122
   77 Pt     5.410814     2.041190    19.354436    -0.049338    -0.006823    -0.003198     0.096878     0.097171    -0.003554    -0.005610    -0.001781     0.002616     0.215778    -0.039948    -0.032296     0.072244
 
The sperically averaged electron density of each atom fit to a function of the form exp(a - br) for r >=rmin_cloud_penetration
atom number,atomic symbol, x, y, z, a, b, Rsquared where a and b are in atomic units and Rsquared is the squared correlation coefficient
    1 C      8.030648     3.959718    23.672321    -0.932371     1.771929     0.999269
    2 C      8.240681     4.781329    22.388843    -0.851950     1.788313     0.999819
    3 C      9.548334     4.366841    21.712445    -0.745826     1.735290     0.999936
    4 C      8.168218     6.279081    22.672878    -0.898955     1.739620     0.999868
    5 H      7.990480     2.882490    23.454801    -3.382100     1.708334     0.998996
    6 H      8.845501     4.133595    24.393052    -2.901567     1.871682     0.990382
    7 H      7.084474     4.246452    24.156218    -3.599314     1.723330     0.995446
    8 H      7.394083     4.520144    21.708206    -2.547608     1.740770     0.999993
    9 H      9.781109     3.307319    21.900611    -2.849812     1.707624     0.999883
   10 H     10.397537     4.986334    22.044031    -3.100802     1.681895     0.999768
   11 H      8.958967     6.587379    23.376781    -3.626934     1.678672     0.998699
   12 H      8.308942     6.872383    21.743679    -2.458433     1.758854     0.999750
   13 H      7.194036     6.565270    23.096029    -3.508906     1.679192     0.999378
   14 Pt     9.624837     4.475227    12.500002     0.618313     1.733787     0.999926
   15 Pt    12.430225     4.475227    12.500002     0.616243     1.733760     0.999924
   16 Pt     4.014061     4.475227    12.500002     0.615514     1.733566     0.999925
   17 Pt     6.819449     4.475227    12.500002     0.616275     1.733629     0.999924
   18 Pt    11.027531     6.904764    12.500002     0.616560     1.733606     0.999925
   19 Pt    13.832919     6.904764    12.500002     0.617130     1.733763     0.999925
   20 Pt     5.416755     6.904764    12.500002     0.616844     1.733842     0.999925
   21 Pt     8.222143     6.904764    12.500002     0.617020     1.733729     0.999924
   22 Pt    12.430225     9.334302    12.500002     0.615094     1.733307     0.999926
   23 Pt    15.235613     9.334302    12.500002     0.616667     1.733746     0.999925
   24 Pt     6.819449     9.334302    12.500002     0.615402     1.733645     0.999925
   25 Pt     9.624837     9.334302    12.500002     0.616831     1.733357     0.999927
   26 Pt     8.222143     2.045690    12.500002     0.616324     1.733555     0.999925
   27 Pt    11.027531     2.045690    12.500002     0.616563     1.733799     0.999924
   28 Pt     2.611367     2.045690    12.500002     0.617212     1.733540     0.999926
   29 Pt     5.416755     2.045690    12.500002     0.617516     1.733321     0.999927
   30 Pt    11.027526     5.285070    14.790603     0.666370     1.752199     0.999997
   31 Pt    13.832914     5.285070    14.790603     0.672504     1.753093     0.999997
   32 Pt     5.416750     5.285070    14.790603     0.670627     1.752796     0.999997
   33 Pt     8.222138     5.285070    14.790603     0.665617     1.752000     0.999998
   34 Pt    12.430220     7.714607    14.790603     0.672768     1.753089     0.999998
   35 Pt    15.235608     7.714607    14.790603     0.670666     1.752639     0.999997
   36 Pt     6.819444     7.714607    14.790603     0.669228     1.752539     0.999997
   37 Pt     9.624832     7.714607    14.790603     0.669983     1.752230     0.999998
   38 Pt     8.222138     0.425995    14.790603     0.669293     1.752544     0.999997
   39 Pt    11.027526     0.425995    14.790603     0.669578     1.752664     0.999997
   40 Pt     2.611362     0.425995    14.790603     0.671855     1.752966     0.999998
   41 Pt     5.416750     0.425995    14.790603     0.671821     1.752866     0.999998
   42 Pt     9.624832     2.855532    14.790603     0.666353     1.752229     0.999998
   43 Pt    12.430220     2.855532    14.790603     0.670950     1.752379     0.999997
   44 Pt     4.014056     2.855532    14.790603     0.669773     1.752700     0.999997
   45 Pt     6.819444     2.855532    14.790603     0.670597     1.752321     0.999997
   46 Pt     9.622610     6.071695    17.098160     0.686108     1.752005     0.999998
   47 Pt    12.426214     6.093911    17.054401     0.668268     1.751948     0.999998
   48 Pt     4.010218     6.092006    17.053764     0.666494     1.751810     0.999998
   49 Pt     6.818148     6.095145    17.054369     0.677138     1.752665     0.999998
   50 Pt    11.022426     8.518949    17.051788     0.665981     1.751732     0.999998
   51 Pt    13.829418     8.524547    17.053987     0.668229     1.752091     0.999997
   52 Pt     5.416783     8.527355    17.052329     0.665440     1.751713     0.999997
   53 Pt     8.224203     8.520339    17.047963     0.669268     1.752054     0.999998
   54 Pt     6.818928     1.241484    17.050035     0.668186     1.752035     0.999998
   55 Pt     9.622655     1.238393    17.051756     0.668585     1.751959     0.999997
   56 Pt     1.203450     1.245177    17.047485     0.667512     1.752003     0.999998
   57 Pt     4.010661     1.237917    17.052553     0.669483     1.752271     0.999997
   58 Pt     8.238667     3.679281    17.094941     0.682924     1.752008     0.999997
   59 Pt    11.001896     3.679903    17.096662     0.680439     1.751955     0.999997
   60 Pt     2.599646     3.666628    17.051341     0.667900     1.751894     0.999998
   61 Pt     5.419516     3.665725    17.051214     0.671321     1.752174     0.999998
   62 Pt     9.610861     4.475217    19.618041     0.551759     1.759584     0.999934
   63 Pt    12.423470     4.471865    19.354468     0.679893     1.751121     0.999959
   64 Pt     4.005140     4.473711    19.350931     0.712385     1.747842     0.999983
   65 Pt     6.807790     4.466558    19.353034     0.652181     1.758632     0.999912
   66 Pt    11.026134     6.908914    19.353576     0.689156     1.754303     0.999949
   67 Pt    13.827140     6.901674    19.353448     0.674307     1.739994     0.999985
   68 Pt     5.407930     6.907087    19.344907     0.693039     1.750299     0.999966
   69 Pt     8.222368     6.923754    19.345672     0.637242     1.759238     0.999932
   70 Pt    12.429019     9.331804    19.351791     0.695469     1.743855     0.999992
   71 Pt    15.231517     9.333563    19.350771     0.700928     1.744811     0.999989
   72 Pt     6.813822     9.341697    19.345608     0.716209     1.751881     0.999981
   73 Pt     9.626560     9.342261    19.350994     0.699205     1.749269     0.999968
   74 Pt     8.212605     2.035097    19.346341     0.674864     1.754503     0.999957
   75 Pt    11.027083     2.044426    19.348062     0.690640     1.754795     0.999957
   76 Pt     2.607524     2.046691    19.353353     0.689785     1.743758     0.999986
   77 Pt     5.410814     2.041190    19.354436     0.709697     1.748703     0.999975
 
 2023/03/27  08:45:45
